
[StandaloneConfiguration]
network =RfCommunication

sim-time-limit = 20s

# Network Configuration
# =======================
*.numberOfServiceNodes = 3
**.*.*.BERFilename = "./BERDATA/RSC_M_2.txt" # Equivalente a: *.RfBaseNode.PHYLayerAbstraction.BERFilename  para todos los nodos
**.*.*.standaloneRFNetwork = true			  # Equivalente a: *.RfBaseNode.PHYLayerAbstraction.standaloneRFNetwork  para todos los nodos


# Radio Configuration (for all nodes)
# =======================
*.RfBaseNode.narrowbandRadio.centerFrequency = 2450 MHz
*.RfBaseNode.narrowbandRadio.bandwidth =  2.8 MHz
*.RfBaseNode.narrowbandRadio.headerLength =  (1 *8 + 7 + 1) * 16us

**.transmitter.modulation = "BPSK" 
**.transmitter.bitrate = 250kbps
**.transmitter.power = 5mW

**.receiver.modulation = "BPSK"
**.receiver.sensitivity = -100dBm
**.receiver.minInterferencePower = -120dBm


# Base Node Configuration
# =======================
*.RfBaseNode.PHYLayerAbstraction.sendMsgOnInit = true
*.RfBaseNode.PHYLayerAbstraction.packetByteLength = 100
*.RfBaseNode.mobility.typename = "StationaryMobility"
*.RfBaseNode.mobility.mobilityModule = ""

#  Esto es en caso de utilizar la abstracción APP
#*.RfBaseNode.app[0].typename = "GenericApplicationRF" # Quiero crear yo la mía
#*.RfBaseNode.app[0].typenam = "UdpBasicApp"
#*.RfBaseNode.app[0].destAdresses = "RfServiceNode"
#*.RfBaseNode.app[0].localPort = 4000
#*.RfBaseNode.app[0].destPort = 4000
#*.RfBaseNode.app[0].networkProtocol = "flood"  # See WirelessNodeBasic.ned parameter configuration for an explanation of this configuration


# Service Node Configuration
# =======================
*.RfServiceNode.PHYLayerAbstraction.packetByteLength = 90
*.RfServiceNode.mobility.typename = "StationaryMobility"

#  Esto es en caso de utilizar la abstracción APP
#*.RfServiceNode.app[0].typename = "GenericApplicationRF"  # Quiero crear yo la mía
#*.RfServiceNode.app[0].typename = "UdpBasicApp"
#*.RfServiceNode.app[0].destAdresses = "RfBaseNode"
#*.RfServiceNode.app[0].localPort = 4000
#*.RfServiceNode.app[0].destPort = 4000
#*.RfServiceNode.app[0].networkProtocol = "flood"  # See WirelessNodeBasic.ned parameter configuration for an explanation of this configuration



# Para conseguir parámetros del ini desde una clase:
# https://stackoverflow.com/questions/45801241/omnet-how-to-access-function-or-variables-in-another-class
# https://stackoverflow.com/questions/33853312/accessing-network-ned-parameters-in-cc-file-omnet

[StandAloneConfigurarionVariableTxPower]
extends = StandaloneConfiguration

**.transmitter.power = ${1..3 step 1}mW
**.*.*.BERFilename = ${"./BERDATA/RSC_M_2.txt", "./BERDATA/RSC_M_4.txt", "./BERDATA/NRNSC_M_2.txt", "./BERDATA/NRNSC_M_4.txt"}


[AlternativeStandAloneRSCM2]
extends = StandaloneConfiguration
**.*.*.BERFilename = "./BERDATA/RSC_M_2.txt"



[AlternativeStandAloneRSCM4]
extends = StandaloneConfiguration
**.*.*.BERFilename = "./BERDATA/RSC_M_4.txt"


[AlternativeStandAloneNRNSCM2]
extends = StandaloneConfiguration
**.*.*.BERFilename = "./BERDATA/NRNSC_M_2.txt"


[AlternativeStandAloneNRNSCM4]
extends = StandaloneConfiguration
**.*.*.BERFilename = "./BERDATA/NRNSC_M_4.txt"


